@<TRIPOS>COMMENT
 LIGANDBOX_ID = KEGG_DURG-00000174-01
 SOURCE = KEGG_DRUG
 SUPPLIER = KEGG_DRUG
 IDNUMBER = D00202
 MOLECULAR_FORMULA = C47H75NO17
 MOLECULAR_WEIGHT = 926.107
 MOLECULAR_CHARGE = 0
 NUM_OF_DONOR = 13
 NUM_OF_ACCEPTOR = 17
 HOMO = -6.8439
 LUMO = -2.1784
 NUM_OF_CHIRAL_ATOMS = 18
 LOGS = -6.6914
 LOGP = -0.2815
 NOTE = 

@<TRIPOS>MOLECULE
KEGG_DURG-00000174-01
 140 141 0 0 0
SMALL
USER_CHARGES

@<TRIPOS>ATOM
     1 C1          37.6830   -16.7320     0.3580 C.3       1  UNK         0.1397
     2 H1          37.5180   -17.7730     0.0210 H         1  UNK         0.1569
     3 O1          37.3470   -16.6300     1.7650 O.3       1  UNK        -0.3621
     4 C2          36.8700   -15.7350    -0.4930 C.3       1  UNK        -0.0197
     5 H2          37.1610   -15.8810    -1.5340 H         1  UNK         0.1403
     6 O2          39.0850   -16.4220     0.1500 O.3       1  UNK        -0.2399
     7 C3          36.5440   -17.6650     2.3810 C.3       1  UNK         0.0740
     8 H3          36.6100   -18.5750     1.7840 H         1  UNK         0.1179
     9 C4          37.1780   -14.2710    -0.1140 C.3       1  UNK        -0.0875
    10 H4          36.6700   -13.6160    -0.8420 H         1  UNK         0.1325
    11 O3          35.4650   -15.9990    -0.4070 O.3       1  UNK        -0.3521
    12 H5          35.2850   -16.8860    -0.7280 H         1  UNK         0.2473
    13 C5          39.5920   -15.0850     0.4450 C.3       1  UNK         0.0419
    14 H6          40.5810   -15.0240    -0.0110 H         1  UNK         0.1627
    15 C6          37.1490   -17.9360     3.7710 C.3       1  UNK        -0.1566
    16 H7          37.4780   -16.9830     4.1840 H         1  UNK         0.0915
    17 H8          36.3800   -18.3480     4.4230 H         1  UNK         0.0915
    18 C7          35.0750   -17.2600     2.4110 C.2       1  UNK        -0.1975
    19 H9          34.4230   -17.6600     1.6480 H         1  UNK         0.1266
    20 C8          38.6970   -13.9960    -0.2010 C.3       1  UNK        -0.0009
    21 H10         38.9160   -13.0330     0.2640 H         1  UNK         0.0851
    22 N1          36.6100   -13.8990     1.2310 N.4       1  UNK        -0.0678
    23 H11         36.8050   -12.9070     1.4310 H         1  UNK         0.2661
    24 H12         37.0410   -14.4910     1.9570 H         1  UNK         0.2661
    25 H13         35.5930   -14.0590     1.2270 H         1  UNK         0.2661
    26 C9          39.8070   -14.8850     1.9570 C.3       1  UNK        -0.2299
    27 H14         40.3360   -15.7420     2.3720 H         1  UNK         0.0957
    28 H15         38.8680   -14.7570     2.4890 H         1  UNK         0.0957
    29 H16         40.4130   -13.9950     2.1220 H         1  UNK         0.0957
    30 C10         38.3470   -18.9090     3.7200 C.3       1  UNK         0.0599
    31 H17         39.0280   -18.5660     2.9390 H         1  UNK         0.0750
    32 C11         34.5670   -16.4720     3.3520 C.2       1  UNK        -0.1177
    33 H18         35.2200   -16.0860     4.1220 H         1  UNK         0.1187
    34 O4          39.0510   -13.8840    -1.5850 O.3       1  UNK        -0.2885
    35 H19         38.6040   -13.1290    -1.9750 H         1  UNK         0.2112
    36 C12         39.1630   -18.9720     5.0520 C.3       1  UNK        -0.2190
    37 H20         39.5850   -17.9730     5.1660 H         1  UNK         0.0752
    38 O5          37.8600   -20.2050     3.3340 O.3       1  UNK        -0.3881
    39 H21         38.5990   -20.8190     3.3180 H         1  UNK         0.2729
    40 C13         33.2770   -16.1620     3.4030 C.2       1  UNK        -0.1745
    41 H22         32.6500   -16.4320     2.5630 H         1  UNK         0.1207
    42 C14         38.3770   -19.2670     6.3680 C.3       1  UNK         0.0686
    43 H23         39.0470   -19.7620     7.0710 H         1  UNK         0.1587
    44 C15         40.3920   -19.8760     4.9620 C.2       1  UNK         0.3248
    45 C16         32.7160   -15.5540     4.4420 C.2       1  UNK        -0.0852
    46 H24         33.3380   -15.2960     5.2890 H         1  UNK         0.1322
    47 C17         37.9180   -17.9620     7.0620 C.3       1  UNK        -0.2346
    48 H25         38.7780   -17.5110     7.5550 H         1  UNK         0.0879
    49 H26         37.5720   -17.2390     6.3310 H         1  UNK         0.0879
    50 O6          37.2760   -20.1650     6.1580 O.3       1  UNK        -0.3232
    51 H27         36.7720   -19.8810     5.3920 H         1  UNK         0.1914
    52 O7          41.3220   -19.7300     5.8020 O.co2     1  UNK        -0.5579
    53 O8          40.5040   -20.7610     4.0710 O.co2     1  UNK        -0.5579
    54 C18         31.4230   -15.2510     4.4870 C.2       1  UNK        -0.1569
    55 H28         30.8130   -15.4760     3.6210 H         1  UNK         0.1189
    56 C19         36.8320   -18.1660     8.1030 C.2       1  UNK         0.2263
    57 C20         30.8450   -14.6710     5.5320 C.2       1  UNK        -0.0848
    58 H29         31.4520   -14.4370     6.3970 H         1  UNK         0.1337
    59 C21         35.4990   -17.5200     7.7370 C.3       1  UNK        -0.2287
    60 H30         35.7030   -16.4900     7.4480 H         1  UNK         0.0990
    61 H31         35.0870   -18.0280     6.8640 H         1  UNK         0.0990
    62 O9          37.0390   -18.8000     9.1730 O.2       1  UNK        -0.2625
    63 C22         29.5600   -14.3360     5.5500 C.2       1  UNK        -0.1575
    64 H32         28.9460   -14.5990     4.6980 H         1  UNK         0.1225
    65 C23         34.4660   -17.5330     8.8840 C.3       1  UNK         0.0149
    66 H33         34.9370   -17.1320     9.7830 H         1  UNK         0.1270
    67 C24         29.0010   -13.6550     6.5430 C.2       1  UNK        -0.1226
    68 H34         29.5950   -13.3670     7.3990 H         1  UNK         0.1272
    69 C25         33.1970   -16.6980     8.5740 C.3       1  UNK        -0.0009
    70 H35         32.6600   -17.1590     7.7440 H         1  UNK         0.1115
    71 O10         34.0840   -18.8960     9.1330 O.3       1  UNK        -0.3001
    72 H36         33.6830   -19.2670     8.3440 H         1  UNK         0.1983
    73 C26         27.5410   -13.2310     6.4830 C.3       1  UNK        -0.1335
    74 H37         27.5060   -12.1470     6.3720 H         1  UNK         0.0924
    75 H38         27.0490   -13.6680     5.6140 H         1  UNK         0.0924
    76 C27         32.2820   -16.6480     9.8150 C.3       1  UNK        -0.1871
    77 H39         32.0960   -17.6670    10.1480 H         1  UNK         0.1057
    78 H40         32.7970   -16.1270    10.6230 H         1  UNK         0.1057
    79 O11         33.5520   -15.3580     8.2020 O.3       1  UNK        -0.3518
    80 H41         34.0120   -14.9350     8.9300 H         1  UNK         0.2058
    81 C28         26.7440   -13.6010     7.7440 C.3       1  UNK        -0.1278
    82 H42         26.7400   -14.6850     7.8520 H         1  UNK         0.0861
    83 H43         27.2500   -13.1790     8.6120 H         1  UNK         0.0861
    84 C29         30.9270   -15.9590     9.5510 C.3       1  UNK        -0.1864
    85 H44         31.0970   -14.9100     9.3100 H         1  UNK         0.0806
    86 H45         30.4300   -16.4290     8.7020 H         1  UNK         0.0806
    87 C30         25.3080   -13.1020     7.6730 C.2       1  UNK        -0.1507
    88 H46         24.6520   -13.5160     6.9200 H         1  UNK         0.1279
    89 C31         30.0260   -16.0590    10.8010 C.3       1  UNK         0.0414
    90 H47         30.5650   -15.6470    11.6560 H         1  UNK         0.1281
    91 C32         24.8610   -12.1570     8.4910 C.2       1  UNK        -0.1384
    92 H48         25.5380   -11.7530     9.2310 H         1  UNK         0.1156
    93 C33         28.7040   -15.2810    10.6190 C.3       1  UNK        -0.2270
    94 H49         28.9260   -14.3210    10.1540 H         1  UNK         0.0801
    95 H50         28.0540   -15.8310     9.9390 H         1  UNK         0.0801
    96 O12         29.7370   -17.4450    11.0490 O.3       1  UNK        -0.3146
    97 H51         29.2660   -17.8110    10.2960 H         1  UNK         0.1928
    98 C34         23.6270   -11.6690     8.4230 C.2       1  UNK        -0.1442
    99 H52         22.9570   -12.0560     7.6680 H         1  UNK         0.1230
   100 C35         27.9610   -14.9990    11.9490 C.3       1  UNK         0.0494
   101 H53         28.5570   -14.3060    12.5440 H         1  UNK         0.1210
   102 C36         23.1890   -10.7070     9.2270 C.2       1  UNK        -0.1417
   103 H54         23.8500   -10.3050     9.9820 H         1  UNK         0.1247
   104 C37         26.5890   -14.3560    11.6520 C.3       1  UNK        -0.2299
   105 H55         26.7610   -13.4840    11.0210 H         1  UNK         0.0796
   106 H56         25.9770   -15.0560    11.0810 H         1  UNK         0.0796
   107 O13         27.7860   -16.2060    12.7030 O.3       1  UNK        -0.2956
   108 H57         27.3090   -16.8490    12.1730 H         1  UNK         0.1973
   109 C38         21.7890   -10.1220     9.0870 C.3       1  UNK        -0.1033
   110 H58         21.4230   -10.3950     8.0970 H         1  UNK         0.0978
   111 C39         25.8050   -13.8910    12.9020 C.3       1  UNK         0.0601
   112 H59         26.4340   -13.2320    13.5030 H         1  UNK         0.1390
   113 C40         20.7350   -10.7230    10.0750 C.3       1  UNK         0.0485
   114 H60         20.5490   -11.7350     9.7190 H         1  UNK         0.1065
   115 C41         21.8670    -8.5790     9.0590 C.3       1  UNK        -0.2084
   116 H61         20.8840    -8.1370     8.9020 H         1  UNK         0.0795
   117 H62         22.5070    -8.2680     8.2340 H         1  UNK         0.0795
   118 H63         22.2940    -8.1820     9.9750 H         1  UNK         0.0795
   119 C42         24.5480   -13.1290    12.4440 C.3       1  UNK        -0.2466
   120 H64         24.8480   -12.3110    11.7890 H         1  UNK         0.1031
   121 H65         23.9370   -13.8200    11.8650 H         1  UNK         0.1031
   122 O14         25.3940   -15.0130    13.6990 O.3       1  UNK        -0.2937
   123 H66         24.8670   -15.6100    13.1640 H         1  UNK         0.1907
   124 C43         21.0350   -10.8350    11.6040 C.3       1  UNK        -0.1302
   125 H67         20.0790   -10.9840    12.1090 H         1  UNK         0.1140
   126 O15         19.4870   -10.0330     9.9130 O.3       1  UNK        -0.3265
   127 H68         19.5790    -9.1300    10.2270 H         1  UNK         0.2048
   128 C44         23.7220   -12.5350    13.5840 C.2       1  UNK         0.3288
   129 C45         21.9000   -12.0880    11.9100 C.3       1  UNK         0.0656
   130 H69         22.6690   -12.1560    11.1500 H         1  UNK         0.0802
   131 C46         21.6270    -9.5430    12.2050 C.3       1  UNK        -0.2005
   132 H70         21.6070    -9.5920    13.2940 H         1  UNK         0.0804
   133 H71         21.0310    -8.6820    11.9080 H         1  UNK         0.0804
   134 H72         22.6590    -9.4050    11.8870 H         1  UNK         0.0804
   135 O16         22.5300   -11.9720    13.2200 O.3       1  UNK        -0.2862
   136 O17         24.1020   -12.5040    14.7860 O.2       1  UNK        -0.2868
   137 C47         21.0670   -13.3860    11.8930 C.3       1  UNK        -0.2352
   138 H73         20.2440   -13.3150    12.6050 H         1  UNK         0.0887
   139 H74         21.6850   -14.2390    12.1680 H         1  UNK         0.0887
   140 H75         20.6590   -13.5710    10.9010 H         1  UNK         0.0887

@<TRIPOS>BOND
     1     1     3   1
     2     1     4   1
     3     1     6   1
     4     3     7   1
     5     4     9   1
     6     4    11   1
     7     6    13   1
     8     7    15   1
     9     7    18   1
    10     9    20   1
    11     9    22   1
    12    13    26   1
    13    15    30   1
    14    18    32   2
    15    20    34   1
    16    30    36   1
    17    30    38   1
    18    32    40   1
    19    36    42   1
    20    36    44   1
    21    40    45   2
    22    42    47   1
    23    42    50   1
    24    44    52   1
    25    44    53   2
    26    45    54   1
    27    47    56   1
    28    54    57   2
    29    56    59   1
    30    56    62   2
    31    57    63   1
    32    59    65   1
    33    63    67   2
    34    65    69   1
    35    65    71   1
    36    67    73   1
    37    69    76   1
    38    69    79   1
    39    73    81   1
    40    76    84   1
    41    81    87   1
    42    84    89   1
    43    87    91   2
    44    89    93   1
    45    89    96   1
    46    91    98   1
    47    93   100   1
    48    98   102   2
    49   100   104   1
    50   100   107   1
    51   102   109   1
    52   104   111   1
    53   109   113   1
    54   109   115   1
    55   111   119   1
    56   111   122   1
    57   113   124   1
    58   113   126   1
    59   119   128   1
    60   124   129   1
    61   124   131   1
    62   128   135   1
    63   128   136   2
    64   129   137   1
    65    13    20   1
    66   129   135   1
    67     1     2   1
    68     4     5   1
    69     7     8   1
    70     9    10   1
    71    11    12   1
    72    13    14   1
    73    15    16   1
    74    15    17   1
    75    18    19   1
    76    20    21   1
    77    22    23   1
    78    22    24   1
    79    22    25   1
    80    26    27   1
    81    26    28   1
    82    26    29   1
    83    30    31   1
    84    32    33   1
    85    34    35   1
    86    36    37   1
    87    38    39   1
    88    40    41   1
    89    42    43   1
    90    45    46   1
    91    47    48   1
    92    47    49   1
    93    50    51   1
    94    54    55   1
    95    57    58   1
    96    59    60   1
    97    59    61   1
    98    63    64   1
    99    65    66   1
   100    67    68   1
   101    69    70   1
   102    71    72   1
   103    73    74   1
   104    73    75   1
   105    76    77   1
   106    76    78   1
   107    79    80   1
   108    81    82   1
   109    81    83   1
   110    84    85   1
   111    84    86   1
   112    87    88   1
   113    89    90   1
   114    91    92   1
   115    93    94   1
   116    93    95   1
   117    96    97   1
   118    98    99   1
   119   100   101   1
   120   102   103   1
   121   104   105   1
   122   104   106   1
   123   107   108   1
   124   109   110   1
   125   111   112   1
   126   113   114   1
   127   115   116   1
   128   115   117   1
   129   115   118   1
   130   119   120   1
   131   119   121   1
   132   122   123   1
   133   124   125   1
   134   126   127   1
   135   129   130   1
   136   131   132   1
   137   131   133   1
   138   131   134   1
   139   137   138   1
   140   137   139   1
   141   137   140   1

